CCOC(=O)c1ccccc1
 OpenBabel05162016413D

 21 21  0  0  0  0  0  0  0  0999 V2000
    9.2039   -3.6943   28.3629 C   0  0  0  0  0  0  0  0  0  0  0  0
    9.6379   -2.2769   28.0269 C   0  0  0  0  0  0  0  0  0  0  0  0
   10.1800   -2.2831   26.6999 O   0  0  0  0  0  0  0  0  0  0  0  0
   10.6561   -1.0913   26.2619 C   0  0  0  0  0  0  0  0  0  0  0  0
   10.7039   -0.0547   26.9050 O   0  0  0  0  0  0  0  0  0  0  0  0
   11.2422   -1.2462   24.9061 C   0  0  0  0  0  0  0  0  0  0  0  0
   11.9678   -0.1683   24.3776 C   0  0  0  0  0  0  0  0  0  0  0  0
   12.6091   -0.2918   23.1448 C   0  0  0  0  0  0  0  0  0  0  0  0
   12.5254   -1.4869   22.4308 C   0  0  0  0  0  0  0  0  0  0  0  0
   11.7963   -2.5600   22.9432 C   0  0  0  0  0  0  0  0  0  0  0  0
   11.1527   -2.4413   24.1771 C   0  0  0  0  0  0  0  0  0  0  0  0
    8.7944   -3.7171   29.3512 H   0  0  0  0  0  0  0  0  0  0  0  0
   10.0496   -4.3478   28.3121 H   0  0  0  0  0  0  0  0  0  0  0  0
    8.4621   -4.0158   27.6620 H   0  0  0  0  0  0  0  0  0  0  0  0
   10.3830   -1.9507   28.7221 H   0  0  0  0  0  0  0  0  0  0  0  0
    8.8040   -1.6089   28.0849 H   0  0  0  0  0  0  0  0  0  0  0  0
   12.0274    0.7185   24.9021 H   0  0  0  0  0  0  0  0  0  0  0  0
   13.1458    0.5017   22.7609 H   0  0  0  0  0  0  0  0  0  0  0  0
   13.0041   -1.5775   21.5210 H   0  0  0  0  0  0  0  0  0  0  0  0
   11.7324   -3.4416   22.4106 H   0  0  0  0  0  0  0  0  0  0  0  0
   10.6102   -3.2345   24.5533 H   0  0  0  0  0  0  0  0  0  0  0  0
  1  2  1  0  0  0  0
  1 12  1  0  0  0  0
  1 13  1  0  0  0  0
  1 14  1  0  0  0  0
  2  3  1  0  0  0  0
  2 15  1  0  0  0  0
  2 16  1  0  0  0  0
  3  4  1  0  0  0  0
  4  5  2  0  0  0  0
  4  6  1  0  0  0  0
  6  7  2  0  0  0  0
  6 11  1  0  0  0  0
  7  8  1  0  0  0  0
  7 17  1  0  0  0  0
  8  9  2  0  0  0  0
  8 18  1  0  0  0  0
  9 10  1  0  0  0  0
  9 19  1  0  0  0  0
 10 11  2  0  0  0  0
 10 20  1  0  0  0  0
 11 21  1  0  0  0  0
M  END
